I'm Pulock Das Kamol
Hello from Bd
new line.

again new line

again new remote line
3rd local change

3rd change
10th remote change
11th remote change
12th remote change
13th remote change
11 th local line

13th local line