I'm Pulock Das Kamol
Hello from Bd
new line.